OpenDSS/Feeder_7773/LineCodes.dss
New Linecode.K_65_13.8KV_1 units=km nphases=1 Rmatrix=(1e-05 ) Xmatrix=(1e-05 ) normamps=55.0

New Linecode.K_100_13.8KV_3 units=km nphases=3 Rmatrix=(1e-05 0.0 0.0 | 0.0 1e-05 0.0 | 0.0 0.0 1e-05 ) Xmatrix=(1e-05 0.0 0.0 | 0.0 1e-05 0.0 | 0.0 0.0 1e-05 ) normamps=90.0

New Linecode.3P_OH_Code0 units=km nphases=3 Rmatrix=(0.4354239999999999 0.22844799999999996 0.22844799999999996 | 0.22844799999999996 0.4354239999999999 0.22844799999999996 | 0.22844799999999996 0.22844799999999996 0.4354239999999999 ) Xmatrix=(1.1996163333333332 0.5697123333333333 0.5697123333333333 | 0.5697123333333333 1.1996163333333332 0.5697123333333333 | 0.5697123333333333 0.5697123333333333 1.1996163333333332 ) normamps=10.0 emergamps=10.0

New Linecode.K_50_13.8KV_3 units=km nphases=3 Rmatrix=(1e-05 0.0 0.0 | 0.0 1e-05 0.0 | 0.0 0.0 1e-05 ) Xmatrix=(1e-05 0.0 0.0 | 0.0 1e-05 0.0 | 0.0 0.0 1e-05 ) normamps=47.0

New Linecode.3P_OH_Code1 units=km nphases=3 Rmatrix=(0.5323993333333333 0.22827233333333333 0.22827233333333333 | 0.22827233333333333 0.5323993333333333 0.22827233333333333 | 0.22827233333333333 0.22827233333333333 0.5323993333333333 ) Xmatrix=(1.2189763333333332 0.5695363333333332 0.5695363333333332 | 0.5695363333333332 1.2189763333333332 0.5695363333333332 | 0.5695363333333332 0.5695363333333332 1.2189763333333332 ) normamps=10.0 emergamps=10.0

New Linecode.1P_OH_Code2 units=km nphases=1 Rmatrix=(0.778272 ) Xmatrix=(0.8465603333333332 ) normamps=10.0 emergamps=10.0

New Linecode.3P_OH_Code3 units=km nphases=3 Rmatrix=(0.5228963333333333 0.22827233333333333 0.22827233333333333 | 0.22827233333333333 0.5228963333333333 0.22827233333333333 | 0.22827233333333333 0.22827233333333333 0.5228963333333333 ) Xmatrix=(1.2232 0.56848 0.56848 | 0.56848 1.2232 0.56848 | 0.56848 0.56848 1.2232 ) normamps=10.0 emergamps=10.0

New Linecode.3P_OH_Code4 units=km nphases=3 Rmatrix=(1.8782719999999997 0.228272 0.228272 | 0.228272 1.8782719999999997 0.228272 | 0.228272 0.228272 1.8782719999999997 ) Xmatrix=(1.3992003333333332 0.5702403333333333 0.5702403333333333 | 0.5702403333333333 1.3992003333333332 0.5702403333333333 | 0.5702403333333333 0.5702403333333333 1.3992003333333332 ) normamps=10.0 emergamps=10.0

New Linecode.21898_3 units=km nphases=3 Rmatrix=(1e-05 0.0 0.0 | 0.0 1e-05 0.0 | 0.0 0.0 1e-05 ) Xmatrix=(1e-05 0.0 0.0 | 0.0 1e-05 0.0 | 0.0 0.0 1e-05 ) normamps=600.0

New Linecode.K_65_13.8KV_2 units=km nphases=2 Rmatrix=(1e-05 0.0 | 0.0 1e-05 ) Xmatrix=(1e-05 0.0 | 0.0 1e-05 ) normamps=55.0

New Linecode.11825_3 units=km nphases=3 Rmatrix=(1e-05 0.0 0.0 | 0.0 1e-05 0.0 | 0.0 0.0 1e-05 ) Xmatrix=(1e-05 0.0 0.0 | 0.0 1e-05 0.0 | 0.0 0.0 1e-05 ) normamps=600.0

New Linecode.OVR_800_21859_3 units=km nphases=3 normamps=800.0

New Linecode.DEFAULT_1 units=km nphases=1 Rmatrix=(1e-05 ) Xmatrix=(1e-05 ) normamps=600.0

New Linecode.K_50_13.8KV_1 units=km nphases=1 Rmatrix=(1e-05 ) Xmatrix=(1e-05 ) normamps=47.0

New Linecode.21859_3 units=km nphases=3 Rmatrix=(1e-05 0.0 0.0 | 0.0 1e-05 0.0 | 0.0 0.0 1e-05 ) Xmatrix=(1e-05 0.0 0.0 | 0.0 1e-05 0.0 | 0.0 0.0 1e-05 ) normamps=800.0

New Linecode.K_101_13.8KV_1 units=km nphases=1 Rmatrix=(1e-05 ) Xmatrix=(1e-05 ) normamps=100.0

New Linecode.3P_OH_Code5 units=km nphases=3 Rmatrix=(0.40128066666666656 0.18321566666666667 0.18321566666666667 | 0.18321566666666667 0.40128066666666656 0.18321566666666667 | 0.18321566666666667 0.18321566666666667 0.40128066666666656 ) Xmatrix=(1.128336 0.9329759999999999 0.9329759999999999 | 0.9329759999999999 1.128336 0.9329759999999999 | 0.9329759999999999 0.9329759999999999 1.128336 ) normamps=10.0 emergamps=10.0

New Linecode.SUB_V_13.0KV_3 units=km nphases=3 Rmatrix=(1e-05 0.0 0.0 | 0.0 1e-05 0.0 | 0.0 0.0 1e-05 ) Xmatrix=(1e-05 0.0 0.0 | 0.0 1e-05 0.0 | 0.0 0.0 1e-05 ) normamps=1200.0

New Linecode.K_100_13.8KV_2 units=km nphases=2 Rmatrix=(1e-05 0.0 | 0.0 1e-05 ) Xmatrix=(1e-05 0.0 | 0.0 1e-05 ) normamps=90.0

New Linecode.3P_OH_Code6 units=km nphases=3 Rmatrix=(0.000528 0.0 0.0 | 0.0 0.000528 0.0 | 0.0 0.0 0.000528 ) Xmatrix=(0.000528 0.0 0.0 | 0.0 0.000528 0.0 | 0.0 0.0 0.000528 ) normamps=10.0 emergamps=10.0

New Linecode.2P_OH_Code7 units=km nphases=2 Rmatrix=(1.8782719999999997 0.228272 | 0.228272 1.8782719999999997 ) Xmatrix=(1.3992003333333332 0.5702403333333333 | 0.5702403333333333 1.3992003333333332 ) normamps=10.0 emergamps=10.0

New Linecode.OVR_800_21859_3_8 units=km nphases=3 Rmatrix=(1e-05 0.0 0.0 | 0.0 1e-05 0.0 | 0.0 0.0 1e-05 ) Xmatrix=(1e-05 0.0 0.0 | 0.0 1e-05 0.0 | 0.0 0.0 1e-05 ) normamps=800.0

New Linecode.K_100_13.8KV_1 units=km nphases=1 Rmatrix=(1e-05 ) Xmatrix=(1e-05 ) normamps=90.0

New Linecode.K_40_13.8KV_1 units=km nphases=1 Rmatrix=(1e-05 ) Xmatrix=(1e-05 ) normamps=37.0

New Linecode.3P_UG_Code9 units=km nphases=3 Rmatrix=(0.41289699999999996 0.19483199999999995 0.19483199999999995 | 0.19483199999999995 0.41289699999999996 0.19483199999999995 | 0.19483199999999995 0.19483199999999995 0.41289699999999996 ) Xmatrix=(0.202224 0.0068639999999999994 0.0068639999999999994 | 0.0068639999999999994 0.202224 0.0068639999999999994 | 0.0068639999999999994 0.0068639999999999994 0.202224 )

New Linecode.12917_3 units=km nphases=3 Rmatrix=(1e-05 0.0 0.0 | 0.0 1e-05 0.0 | 0.0 0.0 1e-05 ) Xmatrix=(1e-05 0.0 0.0 | 0.0 1e-05 0.0 | 0.0 0.0 1e-05 ) normamps=600.0

New Linecode.SWT_TERMINATOR_1 units=km nphases=1 Rmatrix=(1e-05 ) Xmatrix=(1e-05 ) normamps=600.0

New Linecode.K_30_13.8KV_1 units=km nphases=1 Rmatrix=(1e-05 ) Xmatrix=(1e-05 ) normamps=27.0

New Linecode.SWT_TERMINATOR_3 units=km nphases=3 Rmatrix=(1e-05 0.0 0.0 | 0.0 1e-05 0.0 | 0.0 0.0 1e-05 ) Xmatrix=(1e-05 0.0 0.0 | 0.0 1e-05 0.0 | 0.0 0.0 1e-05 ) normamps=600.0

New Linecode.3P_UG_Code10 units=km nphases=3 Rmatrix=(0.000528 0.0 0.0 | 0.0 0.000528 0.0 | 0.0 0.0 0.000528 ) Xmatrix=(0.000528 0.0 0.0 | 0.0 0.000528 0.0 | 0.0 0.0 0.000528 )

New Linecode.QG12_125_13.8KV_3 units=km nphases=3 Rmatrix=(1e-05 0.0 0.0 | 0.0 1e-05 0.0 | 0.0 0.0 1e-05 ) Xmatrix=(1e-05 0.0 0.0 | 0.0 1e-05 0.0 | 0.0 0.0 1e-05 ) normamps=100.0

New Linecode.K_80_13.8KV_1 units=km nphases=1 Rmatrix=(1e-05 ) Xmatrix=(1e-05 ) normamps=70.0

New Linecode.XL_80_13.8KV_2 units=km nphases=2 Rmatrix=(1e-05 0.0 | 0.0 1e-05 ) Xmatrix=(1e-05 0.0 | 0.0 1e-05 ) normamps=75.0

New Linecode.3P_UG_Code11 units=km nphases=3 Rmatrix=(2.1104163333333332 0.47942433333333334 0.47942433333333334 | 0.47942433333333334 2.1104163333333332 0.47942433333333334 | 0.47942433333333334 0.47942433333333334 2.1104163333333332 ) Xmatrix=(0.6346559999999999 0.362736 0.362736 | 0.362736 0.6346559999999999 0.362736 | 0.362736 0.362736 0.6346559999999999 )

New Linecode.KL_25_13.8KV_3 units=km nphases=3 Rmatrix=(1e-05 0.0 0.0 | 0.0 1e-05 0.0 | 0.0 0.0 1e-05 ) Xmatrix=(1e-05 0.0 0.0 | 0.0 1e-05 0.0 | 0.0 0.0 1e-05 ) normamps=20.0

New Linecode.12447_1 units=km nphases=1 Rmatrix=(1e-05 ) Xmatrix=(1e-05 ) normamps=200.0

New Linecode.12B05_3 units=km nphases=3 Rmatrix=(1e-05 0.0 0.0 | 0.0 1e-05 0.0 | 0.0 0.0 1e-05 ) Xmatrix=(1e-05 0.0 0.0 | 0.0 1e-05 0.0 | 0.0 0.0 1e-05 ) normamps=600.0

New Linecode.EF40P_140_13.8KV_3 units=km nphases=3 Rmatrix=(1e-05 0.0 0.0 | 0.0 1e-05 0.0 | 0.0 0.0 1e-05 ) Xmatrix=(1e-05 0.0 0.0 | 0.0 1e-05 0.0 | 0.0 0.0 1e-05 ) normamps=125.0

New Linecode.K_20_13.8KV_1 units=km nphases=1 Rmatrix=(1e-05 ) Xmatrix=(1e-05 ) normamps=17.0

New Linecode.1P_UG_Code12 units=km nphases=1 Rmatrix=(0.9525119999999999 ) Xmatrix=(0.24639966666666666 )

New Linecode.K_15_13.8KV_1 units=km nphases=1 Rmatrix=(1e-05 ) Xmatrix=(1e-05 ) normamps=12.0

New Linecode.QG12_80_13.8KV_3 units=km nphases=3 Rmatrix=(1e-05 0.0 0.0 | 0.0 1e-05 0.0 | 0.0 0.0 1e-05 ) Xmatrix=(1e-05 0.0 0.0 | 0.0 1e-05 0.0 | 0.0 0.0 1e-05 ) normamps=75.0

New Linecode.3P_UG_Code13 units=km nphases=3 Rmatrix=(0.3007836666666666 0.20996866666666666 0.20996866666666666 | 0.20996866666666666 0.3007836666666666 0.20996866666666666 | 0.20996866666666666 0.20996866666666666 0.3007836666666666 ) Xmatrix=(0.195184 0.0066879999999999995 0.0066879999999999995 | 0.0066879999999999995 0.195184 0.0066879999999999995 | 0.0066879999999999995 0.0066879999999999995 0.195184 )

New Linecode.1P_UG_Code14 units=km nphases=1 Rmatrix=(0.00017600000000000002 ) Xmatrix=(0.00017600000000000002 )

New Linecode.K_25_13.8KV_1 units=km nphases=1 Rmatrix=(1e-05 ) Xmatrix=(1e-05 ) normamps=20.0

New Linecode.KL_40_13.8KV_1 units=km nphases=1 Rmatrix=(1e-05 ) Xmatrix=(1e-05 ) normamps=37.0

New Linecode.D_10_13.8KV_1 units=km nphases=1 Rmatrix=(1e-05 ) Xmatrix=(1e-05 ) normamps=5.0

New Linecode.K_65_13.8KV_3 units=km nphases=3 Rmatrix=(1e-05 0.0 0.0 | 0.0 1e-05 0.0 | 0.0 0.0 1e-05 ) Xmatrix=(1e-05 0.0 0.0 | 0.0 1e-05 0.0 | 0.0 0.0 1e-05 ) normamps=55.0

New Linecode.K_30_13.8KV_3 units=km nphases=3 Rmatrix=(1e-05 0.0 0.0 | 0.0 1e-05 0.0 | 0.0 0.0 1e-05 ) Xmatrix=(1e-05 0.0 0.0 | 0.0 1e-05 0.0 | 0.0 0.0 1e-05 ) normamps=27.0

New Linecode.LI_3 units=km nphases=3 Rmatrix=(1e-05 0.0 0.0 | 0.0 1e-05 0.0 | 0.0 0.0 1e-05 ) Xmatrix=(1e-05 0.0 0.0 | 0.0 1e-05 0.0 | 0.0 0.0 1e-05 ) normamps=5000.0

